<?xml version="1.0" encoding="UTF-8"?>

<!-- generated on Tue May 31 17:30:09 2016 by SUMO netconvert Version 0.25.0
<?xml version="1.0" encoding="UTF-8"?>

<configuration xmlns:xsi="http://www.w3.org/2001/XMLSchema-instance" xsi:noNamespaceSchemaLocation="http://sumo.dlr.de/xsd/netconvertConfiguration.xsd">

    <input>
        <osm-files value="centro.osm"/>
    </input>

    <output>
        <output-file value="centro.net.xml"/>
    </output>

    <projection>
        <proj.utm value="true"/>
    </projection>

</configuration>
-->

<net version="0.25" xmlns:xsi="http://www.w3.org/2001/XMLSchema-instance" xsi:noNamespaceSchemaLocation="http://sumo.dlr.de/xsd/net_file.xsd">

    <location netOffset="-775917.61,25222.48" convBoundary="0.00,0.00,1844.82,1718.18" origBoundary="-78.521158,-0.227978,-78.504595,-0.212448" projParameter="+proj=utm +zone=17 +ellps=WGS84 +datum=WGS84 +units=m +no_defs"/>

    <type id="highway.bridleway" priority="1" numLanes="1" speed="2.78" allow="pedestrian" oneway="1" width="2.00"/>
    <type id="highway.bus_guideway" priority="1" numLanes="1" speed="8.33" allow="bus" oneway="1"/>
    <type id="highway.cycleway" priority="1" numLanes="1" speed="5.56" allow="bicycle" oneway="0" width="1.00"/>
    <type id="highway.footway" priority="1" numLanes="1" speed="8.33" allow="pedestrian" oneway="1" width="2.00"/>
    <type id="highway.ford" priority="1" numLanes="1" speed="2.78" allow="army" oneway="0"/>
    <type id="highway.living_street" priority="3" numLanes="1" speed="2.78" disallow="tram rail_urban rail rail_electric ship" oneway="0"/>
    <type id="highway.motorway" priority="13" numLanes="2" speed="44.44" allow="private emergency authority army vip passenger hov taxi bus coach delivery truck trailer motorcycle evehicle custom1 custom2" oneway="1"/>
    <type id="highway.motorway_link" priority="12" numLanes="1" speed="22.22" allow="private emergency authority army vip passenger hov taxi bus coach delivery truck trailer motorcycle evehicle custom1 custom2" oneway="1"/>
    <type id="highway.path" priority="1" numLanes="1" speed="2.78" allow="bicycle pedestrian" oneway="1" width="2.00"/>
    <type id="highway.pedestrian" priority="1" numLanes="1" speed="8.33" allow="pedestrian" oneway="1" width="2.00"/>
    <type id="highway.primary" priority="9" numLanes="2" speed="27.78" disallow="tram rail_urban rail rail_electric ship" oneway="0"/>
    <type id="highway.primary_link" priority="8" numLanes="1" speed="22.22" disallow="tram rail_urban rail rail_electric ship" oneway="0"/>
    <type id="highway.raceway" priority="14" numLanes="2" speed="83.33" allow="vip" oneway="0"/>
    <type id="highway.residential" priority="4" numLanes="1" speed="13.89" disallow="tram rail_urban rail rail_electric ship" oneway="0"/>
    <type id="highway.secondary" priority="7" numLanes="2" speed="27.78" disallow="tram rail_urban rail rail_electric ship" oneway="0"/>
    <type id="highway.secondary_link" priority="6" numLanes="1" speed="22.22" disallow="tram rail_urban rail rail_electric ship" oneway="0"/>
    <type id="highway.service" priority="2" numLanes="1" speed="5.56" allow="delivery bicycle pedestrian" oneway="0"/>
    <type id="highway.services" priority="1" numLanes="1" speed="8.33" disallow="tram rail_urban rail rail_electric ship" oneway="0"/>
    <type id="highway.stairs" priority="1" numLanes="1" speed="1.39" allow="pedestrian" oneway="1" width="2.00"/>
    <type id="highway.step" priority="1" numLanes="1" speed="1.39" allow="pedestrian" oneway="1" width="2.00"/>
    <type id="highway.steps" priority="1" numLanes="1" speed="1.39" allow="pedestrian" oneway="1" width="2.00"/>
    <type id="highway.tertiary" priority="6" numLanes="1" speed="22.22" disallow="tram rail_urban rail rail_electric ship" oneway="0"/>
    <type id="highway.tertiary_link" priority="5" numLanes="1" speed="22.22" disallow="tram rail_urban rail rail_electric ship" oneway="0"/>
    <type id="highway.track" priority="1" numLanes="1" speed="5.56" disallow="tram rail_urban rail rail_electric ship" oneway="0"/>
    <type id="highway.trunk" priority="11" numLanes="2" speed="27.78" disallow="tram rail_urban rail rail_electric bicycle pedestrian ship" oneway="0"/>
    <type id="highway.trunk_link" priority="10" numLanes="1" speed="22.22" disallow="tram rail_urban rail rail_electric bicycle pedestrian ship" oneway="0"/>
    <type id="highway.unclassified" priority="5" numLanes="1" speed="13.89" disallow="tram rail_urban rail rail_electric ship" oneway="0"/>
    <type id="highway.unsurfaced" priority="1" numLanes="1" speed="8.33" disallow="tram rail_urban rail rail_electric ship" oneway="0"/>
    <type id="railway.light_rail" priority="15" numLanes="1" speed="27.78" allow="rail_urban" oneway="1"/>
    <type id="railway.preserved" priority="15" numLanes="1" speed="27.78" allow="rail" oneway="1"/>
    <type id="railway.rail" priority="15" numLanes="1" speed="83.33" allow="rail rail_electric" oneway="1"/>
    <type id="railway.subway" priority="15" numLanes="1" speed="27.78" allow="rail_urban" oneway="1"/>
    <type id="railway.tram" priority="15" numLanes="1" speed="13.89" allow="tram" oneway="1"/>

    <edge id=":1005358779_0" function="internal">
        <lane id=":1005358779_0_0" index="0" disallow="tram rail_urban rail rail_electric ship" speed="13.89" length="4.93" shape="651.98,1146.81 654.88,1150.79"/>
    </edge>
    <edge id=":1005358963_0" function="internal">
        <lane id=":1005358963_0_0" index="0" disallow="tram rail_urban rail rail_electric ship" speed="13.89" length="5.18" shape="628.40,1040.50 632.42,1037.23"/>
    </edge>
    <edge id=":1005359340_0" function="internal">
        <lane id=":1005359340_0_0" index="0" disallow="tram rail_urban rail rail_electric ship" speed="13.89" length="0.10" shape="843.87,1057.23 843.86,1057.22"/>
    </edge>
    <edge id=":1005735167_0" function="internal">
        <lane id=":1005735167_0_0" index="0" disallow="tram rail_urban rail rail_electric ship" speed="13.89" length="8.46" shape="608.79,1218.31 603.49,1211.71"/>
    </edge>
    <edge id=":1005740052_0" function="internal">
        <lane id=":1005740052_0_0" index="0" allow="delivery bicycle pedestrian" speed="4.17" length="5.24" shape="470.75,1069.20 469.73,1068.31 468.62,1067.97 467.41,1068.18 466.12,1068.94"/>
    </edge>
    <edge id=":1005740052_1" function="internal">
        <lane id=":1005740052_1_0" index="0" disallow="tram rail_urban rail rail_electric ship" speed="2.78" length="9.54" shape="470.75,1069.20 464.55,1061.95"/>
    </edge>
    <edge id=":1005740052_2" function="internal">
        <lane id=":1005740052_2_0" index="0" disallow="tram rail_urban rail rail_electric ship" speed="4.17" length="5.08" shape="464.11,1066.32 465.09,1065.31 465.49,1064.25 465.31,1063.13 464.55,1061.95"/>
    </edge>
    <edge id=":1005740052_3" function="internal">
        <lane id=":1005740052_3_0" index="0" allow="delivery bicycle pedestrian" speed="5.56" length="4.82" shape="464.11,1066.32 465.59,1066.22 466.42,1066.62 466.60,1067.53 466.12,1068.94"/>
    </edge>
    <edge id=":1005740514_0" function="internal">
        <lane id=":1005740514_0_0" index="0" allow="delivery bicycle pedestrian" speed="5.56" length="4.82" shape="455.03,1104.88 455.22,1106.36 454.87,1107.21 453.98,1107.44 452.54,1107.05"/>
    </edge>
    <edge id=":1108626047_0" function="internal">
        <lane id=":1108626047_0_0" index="0" disallow="tram rail_urban rail rail_electric ship" speed="27.78" length="0.10" shape="1449.29,716.30 1449.28,716.25"/>
        <lane id=":1108626047_0_1" index="1" disallow="tram rail_urban rail rail_electric ship" speed="27.78" length="0.10" shape="1446.05,716.89 1446.05,716.90"/>
    </edge>
    <edge id=":1108626084_0" function="internal">
        <lane id=":1108626084_0_0" index="0" disallow="tram rail_urban rail rail_electric ship" speed="13.89" length="6.05" shape="1464.37,743.14 1463.16,744.62 1462.61,746.00 1462.73,747.26 1463.52,748.40"/>
    </edge>
    <edge id=":1108626084_1" function="internal">
        <lane id=":1108626084_1_0" index="0" disallow="tram rail_urban rail rail_electric ship" speed="13.89" length="7.24" shape="1464.37,743.14 1458.04,746.65"/>
    </edge>
    <edge id=":1108626084_2" function="internal">
        <lane id=":1108626084_2_0" index="0" disallow="tram rail_urban rail rail_electric ship" speed="13.89" length="7.21" shape="1460.28,741.96 1463.52,748.40"/>
    </edge>
    <edge id=":1108626084_3" function="internal">
        <lane id=":1108626084_3_0" index="0" disallow="tram rail_urban rail rail_electric ship" speed="13.89" length="1.52" shape="1460.28,741.96 1460.47,743.47"/>
    </edge>
    <edge id=":1108626084_4" function="internal">
        <lane id=":1108626084_4_0" index="0" speed="13.89" length="4.50" shape="1460.47,743.47 1460.51,743.85 1460.22,745.26 1459.39,746.20 1458.04,746.65"/>
    </edge>
    <edge id=":1208294325_0" function="internal">
        <lane id=":1208294325_0_0" index="0" allow="delivery bicycle pedestrian" speed="5.56" length="5.56" shape="715.84,448.37 710.69,450.48"/>
    </edge>
    <edge id=":1208294325_1" function="internal">
        <lane id=":1208294325_1_0" index="0" allow="delivery bicycle pedestrian" speed="5.56" length="4.82" shape="715.84,448.37 714.38,448.11 713.67,447.51 713.72,446.59 714.52,445.34"/>
    </edge>
    <edge id=":1208294325_2" function="internal">
        <lane id=":1208294325_2_0" index="0" allow="delivery bicycle pedestrian" speed="5.56" length="5.34" shape="709.59,447.37 714.52,445.34"/>
    </edge>
    <edge id=":1208294325_3" function="internal">
        <lane id=":1208294325_3_0" index="0" allow="delivery bicycle pedestrian" speed="5.56" length="4.82" shape="709.59,447.37 711.03,447.73 711.69,448.37 711.58,449.29 710.69,450.48"/>
    </edge>
    <edge id=":1208294346_0" function="internal">
        <lane id=":1208294346_0_0" index="0" disallow="tram rail_urban rail rail_electric ship" speed="13.89" length="0.10" shape="748.11,492.21 748.11,492.21"/>
    </edge>
    <edge id=":1208294374_0" function="internal">
        <lane id=":1208294374_0_0" index="0" disallow="tram rail_urban rail rail_electric ship" speed="8.34" length="6.56" shape="613.65,506.21 612.32,505.20 610.87,504.75 609.32,504.87 607.65,505.57"/>
    </edge>
    <edge id=":1208294374_1" function="internal">
        <lane id=":1208294374_1_0" index="0" disallow="tram rail_urban rail rail_electric ship" speed="13.89" length="10.32" shape="613.65,506.21 611.54,504.05 610.09,502.47 608.74,500.81 606.92,498.40"/>
    </edge>
    <edge id=":1208294374_2" function="internal">
        <lane id=":1208294374_2_0" index="0" allow="delivery bicycle pedestrian" speed="9.73" length="8.75" shape="613.65,506.21 611.73,503.87 610.94,501.88 611.28,500.26 612.74,498.99"/>
    </edge>
    <edge id=":1208294374_3" function="internal">
        <lane id=":1208294374_3_0" index="0" disallow="tram rail_urban rail rail_electric ship" speed="4.17" length="7.60" shape="614.30,501.90 607.65,505.57"/>
    </edge>
    <edge id=":1208294374_4" function="internal">
        <lane id=":1208294374_4_0" index="0" disallow="tram rail_urban rail rail_electric ship" speed="9.73" length="8.91" shape="614.30,501.90 612.56,502.37 610.75,501.94 608.87,500.62 606.92,498.40"/>
    </edge>
    <edge id=":1208294374_5" function="internal">
        <lane id=":1208294374_5_0" index="0" allow="delivery bicycle pedestrian" speed="5.56" length="4.82" shape="614.30,501.90 612.82,501.76 612.07,501.23 612.04,500.31 612.74,498.99"/>
    </edge>
    <edge id=":1208294374_6" function="internal">
        <lane id=":1208294374_6_0" index="0" disallow="tram rail_urban rail rail_electric ship" speed="8.34" length="5.16" shape="606.02,502.69 607.16,501.81 607.69,500.80 607.61,499.67 606.92,498.40"/>
    </edge>
    <edge id=":1208294374_7" function="internal">
        <lane id=":1208294374_7_0" index="0" allow="delivery bicycle pedestrian" speed="4.17" length="7.67" shape="606.02,502.69 612.74,498.99"/>
    </edge>
    <edge id=":1208294374_8" function="internal">
        <lane id=":1208294374_8_0" index="0" disallow="tram rail_urban rail rail_electric ship" speed="2.78" length="4.82" shape="606.02,502.69 607.50,502.80 608.27,503.32 608.32,504.24 607.65,505.57"/>
    </edge>
    <edge id=":1208294407_0" function="internal">
        <lane id=":1208294407_0_0" index="0" allow="delivery bicycle pedestrian" speed="5.56" length="0.24" shape="708.71,451.19 708.49,451.28"/>
    </edge>
    <edge id=":1208294407_1" function="internal">
        <lane id=":1208294407_1_0" index="0" allow="delivery bicycle pedestrian" speed="5.56" length="2.41" shape="708.71,451.19 707.27,450.82 706.60,450.19"/>
    </edge>
    <edge id=":1208294407_4" function="internal">
        <lane id=":1208294407_4_0" index="0" speed="5.56" length="2.41" shape="706.60,450.19 706.71,449.27 707.60,448.08"/>
    </edge>
    <edge id=":1208294407_2" function="internal">
        <lane id=":1208294407_2_0" index="0" allow="delivery bicycle pedestrian" speed="5.56" length="0.74" shape="706.93,448.38 707.60,448.08"/>
    </edge>
    <edge id=":1208294407_3" function="internal">
        <lane id=":1208294407_3_0" index="0" allow="delivery bicycle pedestrian" speed="5.56" length="2.41" shape="706.93,448.38 708.41,448.52 709.16,449.05"/>
    </edge>
    <edge id=":1208294407_5" function="internal">
        <lane id=":1208294407_5_0" index="0" speed="5.56" length="2.41" shape="709.16,449.05 709.19,449.97 708.49,451.28"/>
    </edge>
    <edge id=":1239464418_0" function="internal">
        <lane id=":1239464418_0_0" index="0" disallow="tram rail_urban rail rail_electric ship" speed="13.89" length="9.44" shape="1082.72,1105.93 1075.06,1111.45"/>
    </edge>
    <edge id=":1239464418_1" function="internal">
        <lane id=":1239464418_1_0" index="0" allow="delivery bicycle pedestrian" speed="9.73" length="7.84" shape="1082.72,1105.93 1080.33,1107.35 1078.35,1108.02 1076.80,1107.94 1075.66,1107.10"/>
    </edge>
    <edge id=":1239464418_2" function="internal">
        <lane id=":1239464418_2_0" index="0" disallow="tram rail_urban rail rail_electric ship" speed="9.73" length="7.88" shape="1078.28,1105.09 1078.79,1106.43 1078.43,1107.93 1077.19,1109.60 1075.06,1111.45"/>
    </edge>
    <edge id=":1239464418_3" function="internal">
        <lane id=":1239464418_3_0" index="0" allow="delivery bicycle pedestrian" speed="5.56" length="4.82" shape="1078.28,1105.09 1078.37,1106.58 1077.97,1107.41 1077.07,1107.58 1075.66,1107.10"/>
    </edge>
    <edge id=":1239464471_0" function="internal">
        <lane id=":1239464471_0_0" index="0" disallow="tram rail_urban rail rail_electric ship" speed="9.73" length="7.67" shape="1023.02,1035.14 1022.65,1033.89 1023.10,1032.44 1024.37,1030.80 1026.46,1028.97"/>
    </edge>
    <edge id=":1239464471_1" function="internal">
        <lane id=":1239464471_1_0" index="0" allow="delivery bicycle pedestrian" speed="5.56" length="4.82" shape="1023.02,1035.14 1023.02,1033.66 1023.47,1032.85 1024.39,1032.74 1025.76,1033.30"/>
    </edge>
    <edge id=":1239464471_2" function="internal">
        <lane id=":1239464471_2_0" index="0" disallow="tram rail_urban rail rail_electric ship" speed="13.89" length="9.29" shape="1018.75,1034.17 1026.46,1028.97"/>
    </edge>
    <edge id=":1239464471_3" function="internal">
        <lane id=":1239464471_3_0" index="0" allow="delivery bicycle pedestrian" speed="9.73" length="7.68" shape="1018.75,1034.17 1021.23,1032.92 1023.23,1032.36 1024.74,1032.48 1025.76,1033.30"/>
    </edge>
    <edge id=":1274623335_0" function="internal">
        <lane id=":1274623335_0_0" index="0" disallow="tram rail_urban rail rail_electric ship" speed="13.89" length="4.82" shape="1422.41,397.93 1419.15,401.48"/>
    </edge>
    <edge id=":1274623335_1" function="internal">
        <lane id=":1274623335_1_0" index="0" disallow="tram rail_urban rail rail_electric ship" speed="13.89" length="2.60" shape="1422.41,397.93 1420.99,398.39 1420.09,398.21 1420.01,398.04"/>
    </edge>
    <edge id=":1274623335_4" function="internal">
        <lane id=":1274623335_4_0" index="0" speed="13.89" length="2.22" shape="1420.01,398.04 1419.69,397.37 1419.81,395.89"/>
    </edge>
    <edge id=":1274623335_2" function="internal">
        <lane id=":1274623335_2_0" index="0" disallow="tram rail_urban rail rail_electric ship" speed="13.89" length="4.42" shape="1416.82,399.14 1419.81,395.89"/>
    </edge>
    <edge id=":1274623335_3" function="internal">
        <lane id=":1274623335_3_0" index="0" disallow="tram rail_urban rail rail_electric ship" speed="13.89" length="2.41" shape="1416.82,399.14 1418.28,398.85 1419.15,399.15"/>
    </edge>
    <edge id=":1274623335_5" function="internal">
        <lane id=":1274623335_5_0" index="0" speed="13.89" length="2.41" shape="1419.15,399.15 1419.44,400.02 1419.15,401.48"/>
    </edge>
    <edge id=":1419733875_0" function="internal">
        <lane id=":1419733875_0_0" index="0" disallow="tram rail_urban rail rail_electric ship" speed="13.89" length="5.11" shape="1119.90,464.75 1118.91,463.94 1117.81,463.59 1116.59,463.70 1115.27,464.29"/>
    </edge>
    <edge id=":1419733875_1" function="internal">
        <lane id=":1419733875_1_0" index="0" disallow="tram rail_urban rail rail_electric ship" speed="13.89" length="6.04" shape="1119.90,464.75 1116.18,460.00"/>
    </edge>
    <edge id=":1419733875_2" function="internal">
        <lane id=":1419733875_2_0" index="0" disallow="tram rail_urban rail rail_electric ship" speed="13.89" length="2.57" shape="1119.90,464.75 1119.70,463.28 1120.04,462.43 1120.20,462.38"/>
    </edge>
    <edge id=":1419733875_6" function="internal">
        <lane id=":1419733875_6_0" index="0" speed="13.89" length="2.24" shape="1120.20,462.38 1120.93,462.19 1122.37,462.56"/>
    </edge>
    <edge id=":1419733875_3" function="internal">
        <lane id=":1419733875_3_0" index="0" disallow="tram rail_urban rail rail_electric ship" speed="13.89" length="5.68" shape="1118.87,458.09 1122.37,462.56"/>
    </edge>
    <edge id=":1419733875_4" function="internal">
        <lane id=":1419733875_4_0" index="0" disallow="tram rail_urban rail rail_electric ship" speed="13.89" length="3.13" shape="1118.87,458.09 1119.41,459.55 1118.99,461.07"/>
    </edge>
    <edge id=":1419733875_5" function="internal">
        <lane id=":1419733875_5_0" index="0" disallow="tram rail_urban rail rail_electric ship" speed="13.89" length="2.41" shape="1118.87,458.09 1118.92,459.58 1118.48,460.39"/>
    </edge>
    <edge id=":1419733875_7" function="internal">
        <lane id=":1419733875_7_0" index="0" speed="13.89" length="4.95" shape="1118.99,461.07 1117.61,462.65 1115.27,464.29"/>
    </edge>
    <edge id=":1419733875_8" function="internal">
        <lane id=":1419733875_8_0" index="0" speed="13.89" length="2.41" shape="1118.48,460.39 1117.57,460.53 1116.18,460.00"/>
    </edge>
    <edge id=":1628802834_0" function="internal">
        <lane id=":1628802834_0_0" index="0" disallow="tram rail_urban rail rail_electric ship" speed="18.05" length="5.09" shape="1468.85,819.44 1467.80,818.48 1466.71,818.06 1465.57,818.17 1464.39,818.82"/>
    </edge>
    <edge id=":1628802834_1" function="internal">
        <lane id=":1628802834_1_0" index="0" disallow="tram rail_urban rail rail_electric ship" speed="13.89" length="6.23" shape="1469.38,815.09 1464.39,818.82"/>
    </edge>
    <edge id=":2104407189_0" function="internal">
        <lane id=":2104407189_0_0" index="0" disallow="tram rail_urban rail rail_electric ship" speed="13.89" length="5.39" shape="1413.48,748.50 1409.80,752.44"/>
    </edge>
    <edge id=":2104407189_1" function="internal">
        <lane id=":2104407189_1_0" index="0" disallow="tram rail_urban rail rail_electric ship" speed="13.89" length="4.65" shape="1413.48,748.50 1408.82,748.40"/>
    </edge>
    <edge id=":2104407248_0" function="internal">
        <lane id=":2104407248_0_0" index="0" disallow="tram rail_urban rail rail_electric ship" speed="13.89" length="5.38" shape="1396.97,744.02 1392.59,740.88"/>
    </edge>
    <edge id=":2104407248_1" function="internal">
        <lane id=":2104407248_1_0" index="0" disallow="tram rail_urban rail rail_electric ship" speed="9.73" length="5.84" shape="1398.42,740.51 1392.59,740.88"/>
    </edge>
    <edge id=":2104407267_0" function="internal">
        <lane id=":2104407267_0_0" index="0" disallow="tram rail_urban rail rail_electric ship" speed="13.89" length="8.75" shape="1384.70,739.89 1383.84,731.19"/>
    </edge>
    <edge id=":2104407267_1" function="internal">
        <lane id=":2104407267_1_0" index="0" disallow="tram rail_urban rail rail_electric ship" speed="13.89" length="3.22" shape="1388.28,737.79 1386.37,736.22 1385.89,735.65"/>
    </edge>
    <edge id=":2104407267_2" function="internal">
        <lane id=":2104407267_2_0" index="0" speed="13.89" length="5.01" shape="1385.89,735.65 1385.00,734.59 1384.16,732.91 1383.84,731.19"/>
    </edge>
    <edge id=":2106896384_0" function="internal">
        <lane id=":2106896384_0_0" index="0" disallow="tram rail_urban rail rail_electric ship" speed="13.89" length="5.32" shape="1099.33,754.95 1095.82,750.95"/>
    </edge>
    <edge id=":2106896397_0" function="internal">
        <lane id=":2106896397_0_0" index="0" disallow="tram rail_urban rail rail_electric ship" speed="11.11" length="5.18" shape="1019.07,807.03 1022.32,811.06"/>
    </edge>
    <edge id=":267037291_0" function="internal">
        <lane id=":267037291_0_0" index="0" disallow="tram rail_urban rail rail_electric ship" speed="13.89" length="5.28" shape="1513.79,1252.05 1517.27,1256.03"/>
    </edge>
    <edge id=":267037292_0" function="internal">
        <lane id=":267037292_0_0" index="0" disallow="tram rail_urban rail rail_electric ship" speed="13.89" length="5.07" shape="1450.58,1177.83 1451.63,1178.74 1452.72,1179.11 1453.85,1178.93 1455.03,1178.21"/>
    </edge>
    <edge id=":267037292_1" function="internal">
        <lane id=":267037292_1_0" index="0" disallow="tram rail_urban rail rail_electric ship" speed="13.89" length="6.26" shape="1450.58,1177.83 1454.65,1182.58"/>
    </edge>
    <edge id=":267037292_2" function="internal">
        <lane id=":267037292_2_0" index="0" disallow="tram rail_urban rail rail_electric ship" speed="13.89" length="6.26" shape="1450.21,1182.20 1455.03,1178.21"/>
    </edge>
    <edge id=":267037292_3" function="internal">
        <lane id=":267037292_3_0" index="0" disallow="tram rail_urban rail rail_electric ship" speed="13.89" length="1.57" shape="1450.21,1182.20 1451.39,1181.47 1451.57,1181.44"/>
    </edge>
    <edge id=":267037292_4" function="internal">
        <lane id=":267037292_4_0" index="0" speed="13.89" length="3.50" shape="1451.57,1181.44 1452.53,1181.29 1453.62,1181.66 1454.65,1182.58"/>
    </edge>
    <edge id=":267037293_0" function="internal">
        <lane id=":267037293_0_0" index="0" disallow="tram rail_urban rail rail_electric ship" speed="13.89" length="5.06" shape="1390.93,1104.08 1390.02,1105.14 1389.66,1106.24 1389.86,1107.36 1390.59,1108.52"/>
    </edge>
    <edge id=":267037293_1" function="internal">
        <lane id=":267037293_1_0" index="0" disallow="tram rail_urban rail rail_electric ship" speed="13.89" length="6.26" shape="1390.93,1104.08 1386.22,1108.20"/>
    </edge>
    <edge id=":267037293_2" function="internal">
        <lane id=":267037293_2_0" index="0" disallow="tram rail_urban rail rail_electric ship" speed="13.89" length="6.26" shape="1386.56,1103.74 1390.59,1108.52"/>
    </edge>
    <edge id=":267037293_3" function="internal">
        <lane id=":267037293_3_0" index="0" disallow="tram rail_urban rail rail_electric ship" speed="13.89" length="1.59" shape="1386.56,1103.74 1387.29,1104.93 1387.32,1105.11"/>
    </edge>
    <edge id=":267037293_4" function="internal">
        <lane id=":267037293_4_0" index="0" speed="13.89" length="3.49" shape="1387.32,1105.11 1387.48,1106.07 1387.12,1107.16 1386.22,1108.20"/>
    </edge>
    <edge id=":267037294_0" function="internal">
        <lane id=":267037294_0_0" index="0" disallow="tram rail_urban rail rail_electric ship" speed="13.89" length="4.96" shape="1333.22,1034.11 1332.34,1035.14 1331.98,1036.21 1332.16,1037.32 1332.87,1038.48"/>
    </edge>
    <edge id=":267037294_1" function="internal">
        <lane id=":267037294_1_0" index="0" disallow="tram rail_urban rail rail_electric ship" speed="13.89" length="2.03" shape="1333.22,1034.11 1331.74,1034.31 1331.24,1034.10"/>
    </edge>
    <edge id=":267037294_4" function="internal">
        <lane id=":267037294_4_0" index="0" speed="13.89" length="2.79" shape="1331.24,1034.10 1330.89,1033.96 1330.65,1033.07 1331.04,1031.63"/>
    </edge>
    <edge id=":267037294_2" function="internal">
        <lane id=":267037294_2_0" index="0" disallow="tram rail_urban rail rail_electric ship" speed="13.89" length="6.18" shape="1327.46,1036.67 1331.04,1031.63"/>
    </edge>
    <edge id=":267037294_3" function="internal">
        <lane id=":267037294_3_0" index="0" disallow="tram rail_urban rail rail_electric ship" speed="13.89" length="3.13" shape="1327.46,1036.67 1328.70,1036.10 1330.02,1036.21 1330.40,1036.43"/>
    </edge>
    <edge id=":267037294_5" function="internal">
        <lane id=":267037294_5_0" index="0" speed="13.89" length="3.23" shape="1330.40,1036.43 1331.41,1037.00 1332.87,1038.48"/>
    </edge>
    <edge id=":268250488_0" function="internal">
        <lane id=":268250488_0_0" index="0" disallow="tram rail_urban rail rail_electric ship" speed="8.34" length="7.46" shape="505.69,1309.18 503.46,1310.79 501.61,1311.69 500.15,1311.91 499.08,1311.43"/>
    </edge>
    <edge id=":268250488_1" function="internal">
        <lane id=":268250488_1_0" index="0" disallow="tram rail_urban rail rail_electric ship" speed="2.78" length="4.82" shape="501.33,1309.02 501.67,1310.47 501.41,1311.35 500.54,1311.67 499.08,1311.43"/>
    </edge>
    <edge id=":268250492_0" function="internal">
        <lane id=":268250492_0_0" index="0" allow="delivery bicycle pedestrian" speed="4.17" length="7.78" shape="411.12,1221.05 409.99,1219.25 409.70,1217.51 410.24,1215.83 411.62,1214.22"/>
    </edge>
    <edge id=":268250492_1" function="internal">
        <lane id=":268250492_1_0" index="0" disallow="tram rail_urban rail rail_electric ship" speed="2.78" length="4.82" shape="411.12,1221.05 410.95,1219.58 411.32,1218.73 412.21,1218.51 413.64,1218.92"/>
    </edge>
    <edge id=":268250492_2" function="internal">
        <lane id=":268250492_2_0" index="0" disallow="tram rail_urban rail rail_electric ship" speed="4.17" length="2.54" shape="413.80,1216.69 413.35,1217.22 413.18,1217.77 413.27,1218.33 413.64,1218.92"/>
    </edge>
    <edge id=":268250492_3" function="internal">
        <lane id=":268250492_3_0" index="0" allow="delivery bicycle pedestrian" speed="5.56" length="4.82" shape="413.80,1216.69 412.33,1216.89 411.47,1216.54 411.24,1215.65 411.62,1214.22"/>
    </edge>
    <edge id=":268253357_0" function="internal">
        <lane id=":268253357_0_0" index="0" disallow="tram rail_urban rail rail_electric ship" speed="13.89" length="5.09" shape="946.08,1323.78 947.06,1322.77 947.46,1321.70 947.27,1320.58 946.49,1319.41"/>
    </edge>
    <edge id=":268253357_1" function="internal">
        <lane id=":268253357_1_0" index="0" disallow="tram rail_urban rail rail_electric ship" speed="13.89" length="6.21" shape="946.08,1323.78 951.00,1319.99"/>
    </edge>
    <edge id=":268253358_0" function="internal">
        <lane id=":268253358_0_0" index="0" disallow="tram rail_urban rail rail_electric ship" speed="13.89" length="5.41" shape="887.65,1253.39 886.53,1252.44 885.36,1252.04 884.13,1252.20 882.85,1252.91"/>
    </edge>
    <edge id=":268253358_1" function="internal">
        <lane id=":268253358_1_0" index="0" disallow="tram rail_urban rail rail_electric ship" speed="13.89" length="6.57" shape="887.65,1253.39 883.23,1248.54"/>
    </edge>
    <edge id=":268253358_2" function="internal">
        <lane id=":268253358_2_0" index="0" disallow="tram rail_urban rail rail_electric ship" speed="13.89" length="6.57" shape="888.15,1249.04 882.85,1252.91"/>
    </edge>
    <edge id=":268253358_3" function="internal">
        <lane id=":268253358_3_0" index="0" disallow="tram rail_urban rail rail_electric ship" speed="13.89" length="1.81" shape="888.15,1249.04 886.84,1249.72 886.50,1249.76"/>
    </edge>
    <edge id=":268253358_4" function="internal">
        <lane id=":268253358_4_0" index="0" speed="13.89" length="3.67" shape="886.50,1249.76 885.58,1249.86 884.38,1249.47 883.23,1248.54"/>
    </edge>
    <edge id=":268253366_0" function="internal">
        <lane id=":268253366_0_0" index="0" disallow="tram rail_urban rail rail_electric ship" speed="13.89" length="5.52" shape="1028.18,1266.88 1029.36,1267.85 1030.57,1268.27 1031.81,1268.12 1033.08,1267.41"/>
    </edge>
    <edge id=":268253366_1" function="internal">
        <lane id=":268253366_1_0" index="0" disallow="tram rail_urban rail rail_electric ship" speed="13.89" length="6.67" shape="1028.18,1266.88 1032.70,1271.78"/>
    </edge>
    <edge id=":268253366_2" function="internal">
        <lane id=":268253366_2_0" index="0" disallow="tram rail_urban rail rail_electric ship" speed="13.89" length="6.66" shape="1027.62,1271.22 1033.08,1267.41"/>
    </edge>
    <edge id=":268253366_3" function="internal">
        <lane id=":268253366_3_0" index="0" disallow="tram rail_urban rail rail_electric ship" speed="13.89" length="1.90" shape="1027.62,1271.22 1029.02,1270.57 1029.37,1270.54"/>
    </edge>
    <edge id=":268253366_4" function="internal">
        <lane id=":268253366_4_0" index="0" speed="13.89" length="3.73" shape="1029.37,1270.54 1030.33,1270.45 1031.56,1270.85 1032.70,1271.78"/>
    </edge>
    <edge id=":268253367_0" function="internal">