<?xml version="1.0" encoding="UTF-8"?>

<!-- generated on Tue May 31 22:28:58 2016 by SUMO duarouter Version 0.25.0
<?xml version="1.0" encoding="UTF-8"?>

<configuration xmlns:xsi="http://www.w3.org/2001/XMLSchema-instance" xsi:noNamespaceSchemaLocation="http://sumo.dlr.de/xsd/duarouterConfiguration.xsd">

    <input>
        <net-file value="centro.net.xml"/>
        <trip-files value="trips.trips.xml"/>
    </input>

    <output>
        <output-file value="centro.rou.xml"/>
    </output>

    <processing>
        <ignore-errors value="true"/>
    </processing>

    <time>
        <begin value="0"/>
        <end value="50.0"/>
    </time>

    <report>
        <no-warnings value="true"/>
        <no-step-log value="true"/>
    </report>

</configuration>
-->

<routes xmlns:xsi="http://www.w3.org/2001/XMLSchema-instance" xsi:noNamespaceSchemaLocation="http://sumo.dlr.de/xsd/routes_file.xsd">

<route id="route0" color="1,0,0" edges="104750584 420917636 420917638 104750573#0 104750573#1 104750573#2 104750532#0 104750532#1 104750532#2 409656671#0 409656671#1 421482710#0 421482710#1"/>
<route id="route1" color="0,0,255" edges="351942415#0 351942415#1 351942415#2 351942415#3 353552119#0 353552119#1 353552119#2 353552119#3 353552119#4 353552119#5 31018349 31018343#0 31018343#1 399725775 409656668#0 409656668#1 409656668#2"/>
<route id="route2" color="0,255,0" edges="338912988#0 338912988#1 338912988#2 353552122 353552123#0 353552123#1 353552123#2 353552123#3 36739013 351942429#2 351942429#3 351942429#4 31018349 -31018344"/>
<route id="route3" color="255,102,178" edges="338912988#0 338912988#1 338912988#2 353552122 353552123#0 24918887#3 24918887#4 24918887#5 409656670#0 353552119#2 353552119#3 353552119#4 353552119#5 31018349 -31018344"/>
<route id="route4" color="0,255,255" edges="354423303#0 354423303#1 351942429#0 351942429#1 -36739013 352907817 351942413#0 351942413#1 351942413#2 351942414#0 351942414#1 351942414#2 351942414#3"/>
<route id="route5" edges="354423303#0 354423303#1 351942429#0 351942429#1 351942429#2 351942429#3 351942429#4 31018346 24734056#0 24734056#1 24734056#2 24734056#3 24734056#4 24734056#5 24734056#6 409656673 351942417 24714726#0 24714726#1 407392931#0 407392931#1 407392931#2 407392931#3"/>
<route id="route6" edges="-409656666#8 -409656666#7 -409656666#6 -409656666#5 -409656666#4 -409656666#3 -409656666#2 -409656666#1 -409656666#0 399725775 409656668#0 24925791#1 136201595 296532165#0 296532165#1"/>
<route id="route7" edges="104750584 420917636 420917638 104750573#0 104750573#1 104750573#2 104750532#0 104750532#1 104750532#2 409656671#0 409656671#1 421482710#0 421482710#1 296352792#0 296352792#1 296352792#2 296352792#3"/>
<route id="route8" edges="104750584 420917636 420917638 104750573#0 104750573#1 104750573#2 104750532#0 104750532#1 104750532#2 409656671#0 24734059#1 24734059#2 24734059#3 353552120 353552121#0 353552121#1 353552121#2"/>
<route id="route9" edges="316739599#3 149946839 24715198#0 24715198#1 24715198#2 338912988#1 338912988#2 353552120 353552121#0 351942414#2 31141991#2 31141991#3 128476832#0 128476832#1 31910494 353552119#0 24734059#0 24734059#1"/>
<route id="route10" edges="354423304#3 31910394#0 24680728#1 24680728#2 31910357#0 31910357#1 31910357#2 351942413#1 351942413#2 351942414#0 24918887#2 353552123#1 353552123#2 353552123#3 36739013 351942429#2 351942429#3 351942429#4 31018346 24734056#0 24734056#1 24734056#2 24734056#3 24734056#4 24734061 112033768#0"/>
<route id="route11" edges="24918887#0 24918887#1 24918887#2 24918887#3 24918887#4 24918887#5 409656670#0 409656670#1 409656672#0 420910319 24734059#0 24734059#1 24734059#2 24734059#3 353552120 353552121#0 351942414#2 31141991#2 31141991#3 128476832#0 128476832#1"/>
<route id="route12" edges="316739599#3 351942415#3 353552119#0 24734059#0 24734059#1 24734059#2 24734059#3 353552122 353552123#0 353552123#1 353552123#2 353552123#3 36739013 128476278#0 128476278#1 128476278#2 31282543 24925791#2 24925881#0 24925881#1 71155373#1 71155373#2 31281338 354423304#0 354423304#1 31910357#1 31910357#2 351942413#1"/>
<route id="route13" edges="354423303#0 354423303#1 351942429#0 351942429#1 351942429#2 351942429#3 351942429#4 31018346 24734056#0 24734056#1 24734056#2 24734056#3 24734056#4 24734056#5 24734056#6 409656672#0 420910319 24734059#0 24734059#1 24734059#2"/>
<route id="route14" edges="24734059#2 24734059#3 353552122 353552123#0 353552123#1 353552123#2 353552123#3 36739013 351942429#2 -409656666#0 399725775 -31153096"/>

<vType id="passenger/sedan" guiShape="passenger/sedan" accel="2.0" decel="4.0" sigma="0.5" length="4.5" minGap="3.0" maxSpeed="50">

<carFollowing-IDM/> 
</vType>

<flow id="Ruta0" type="passenger/sedan" route="route0" begin="0.00" period="3" number="14"/>
<flow id="Ruta1" type="passenger/sedan" route="route1" begin="1.00" period="3" number="14"/>
<flow id="Ruta2" type="passenger/sedan" route="route2" begin="2.00" period="3" number="12"/>
<flow id="Ruta3" type="passenger/sedan" route="route3" begin="3.00" period="3" number="12"/>
<flow id="Ruta4" type="passenger/sedan" route="route4" begin="4.00" period="3" number="10"/>
<flow id="Ruta5" type="passenger/sedan" route="route5" begin="5.00" period="3" number="10"/>
<flow id="Ruta6" type="passenger/sedan" route="route6" begin="6.00" period="3" number="8"/>
<flow id="Ruta7" type="passenger/sedan" route="route7" begin="7.00" period="3" number="8"/>
<flow id="Ruta8" type="passenger/sedan" route="route8" begin="8.00" period="3" number="6"/>
<flow id="Ruta9" type="passenger/sedan" route="route9" begin="9.00" period="3" number="1"/>
<flow id="Ruta10" type="passenger/sedan" route="route10" begin="10.00" period="3" number="1"/>
<flow id="Ruta11" type="passenger/sedan" route="route11" begin="11.00" period="3" number="1"/>
<flow id="Ruta12" type="passenger/sedan" route="route12" begin="12.00" period="3" number="1"/>
<flow id="Ruta13" type="passenger/sedan" route="route13" begin="13.00" period="3" number="1"/>
<flow id="Ruta14" type="passenger/sedan" route="route14" begin="14.00" period="3" number="1"/>

</routes>
