<?xml version="1.0" encoding="UTF-8"?>

<!-- generated on Tue May 31 17:33:16 2016 by SUMO polyconvert Version 0.25.0
<?xml version="1.0" encoding="UTF-8"?>

<configuration xmlns:xsi="http://www.w3.org/2001/XMLSchema-instance" xsi:noNamespaceSchemaLocation="http://sumo.dlr.de/xsd/polyconvertConfiguration.xsd">

    <input>
        <net-file value="centro.net.xml"/>
        <osm-files value="centro.osm"/>
        <type-file value="typemap.xml"/>
    </input>

    <output>
        <output-file value="centro.poly.xml"/>
    </output>

    <processing>
        <poi-layer-offset value="5"/>
    </processing>

</configuration>
-->

<additional xmlns:xsi="http://www.w3.org/2001/XMLSchema-instance" xsi:noNamespaceSchemaLocation="http://sumo.dlr.de/xsd/additional_file.xsd">
    <location netOffset="-775917.61,25222.48" convBoundary="-0.00,0.00,1844.82,1718.18" origBoundary="-78.521158,-0.227978,-78.504595,-0.212448" projParameter="+proj=utm +zone=17 +ellps=WGS84 +datum=WGS84 +units=m +no_defs"/>

    <poly id="104750523" type="unknown" color="51,128,255" fill="0" layer="-1.00" shape="982.22,607.04 1039.29,548.01"/>
    <poly id="104750525" type="unknown" color="51,128,255" fill="0" layer="-1.00" shape="711.65,448.39 777.48,514.64 781.95,527.73"/>
    <poly id="104750532" type="unknown" color="51,128,255" fill="0" layer="-1.00" shape="910.53,677.63 1020.76,809.05 1076.27,880.78 1136.24,945.51 1139.60,949.73"/>
    <poly id="104750566" type="unknown" color="51,128,255" fill="0" layer="-1.00" shape="821.40,402.40 766.88,424.41 711.65,448.39 707.92,449.72"/>
    <poly id="104750573" type="unknown" color="51,128,255" fill="0" layer="-1.00" shape="748.10,492.22 781.95,527.73 846.70,601.33 910.53,677.63"/>
    <poly id="104750584" type="unknown" color="51,128,255" fill="0" layer="-1.00" shape="656.44,403.47 669.12,415.79"/>
    <poly id="104750586" type="unknown" color="51,128,255" fill="0" layer="-1.00" shape="910.53,677.63 982.22,607.04"/>
    <poly id="107938352" type="unknown" color="51,128,255" fill="0" layer="-1.00" shape="1539.83,855.99 1579.02,825.96"/>
    <poly id="107938404" type="unknown" color="51,128,255" fill="0" layer="-1.00" shape="1022.77,1031.82 1042.53,1061.22 1078.87,1108.59"/>
    <poly id="112033748" type="unknown" color="51,128,255" fill="0" layer="-1.00" shape="1472.38,429.78 1452.44,423.64 1432.60,414.60 1420.05,398.25"/>
    <poly id="112033751" type="unknown" color="51,128,255" fill="0" layer="-1.00" shape="1367.04,450.95 1421.74,522.13 1454.62,562.14"/>
    <poly id="112033753" type="building" color="255,230,230" fill="1" layer="2.00" shape="1289.17,382.85 1303.96,394.75 1310.37,386.48 1325.41,399.92 1307.82,420.75 1288.53,438.62 1271.43,450.48 1258.58,460.25 1236.34,473.85 1223.94,482.35 1228.65,490.42 1216.68,497.65 1201.12,508.91 1202.56,512.10 1188.45,521.45 1176.46,501.90 1185.45,496.80 1175.60,482.79 1206.83,460.26 1216.67,473.85 1239.39,454.27 1231.86,443.47 1238.67,437.99 1247.69,448.96 1269.10,430.22 1258.83,417.49 1264.33,410.70 1275.46,422.81 1295.61,403.47 1283.40,392.42 1289.17,382.85"/>
    <poly id="112033768" type="unknown" color="51,128,255" fill="0" layer="-1.00" shape="1266.13,634.92 1331.87,593.01 1342.20,585.20 1351.21,579.31 1421.74,522.13"/>
    <poly id="128475745" type="unknown" color="51,128,255" fill="0" layer="-1.00" shape="1119.47,461.80 1011.73,525.64"/>
    <poly id="128476278" type="unknown" color="51,128,255" fill="0" layer="-1.00" shape="686.80,732.73 620.14,654.86 588.92,621.94 524.49,553.23"/>
    <poly id="128476832" type="boundary.administrative" color="128,0,51" fill="0" layer="-12.00" shape="1184.31,1149.40 1253.09,1092.72 1329.88,1034.85"/>
    <poly id="136201595" type="unknown" color="51,128,255" fill="0" layer="-1.00" shape="508.30,531.13 495.44,507.64"/>
    <poly id="149573997" type="amenity" color="237,199,199" fill="1" layer="2.00" shape="944.85,511.73 942.33,509.15 960.56,491.65 963.08,494.24 944.85,511.73"/>
    <poly id="149573997#1" type="building" color="255,230,230" fill="1" layer="2.00" shape="944.85,511.73 942.33,509.15 960.56,491.65 963.08,494.24 944.85,511.73"/>
    <poly id="149575986" type="unknown" color="79,230,125" fill="1" layer="-1.00" shape="1651.15,1098.47 1679.89,1076.09 1704.69,1129.09 1667.61,1118.77 1651.15,1098.47"/>
    <poly id="149946837" type="unknown" color="51,128,255" fill="0" layer="-1.00" shape="1613.61,916.84 1673.12,994.28"/>
    <poly id="149946838" type="unknown" color="51,128,255" fill="0" layer="-1.00" shape="1558.28,772.76 1565.04,788.89 1579.02,825.96 1590.56,877.84 1613.61,916.84"/>
    <poly id="149946839" type="unknown" color="51,128,255" fill="0" layer="-1.00" shape="1439.47,1061.09 1388.56,1106.18"/>
    <poly id="149946840" type="unknown" color="51,128,255" fill="0" layer="-1.00" shape="1844.81,801.51 1749.82,828.09 1710.99,844.12 1613.61,916.84"/>
    <poly id="149946841" type="boundary.administrative" color="128,0,51" fill="0" layer="-12.00" shape="1388.56,1106.18 1452.63,1180.21 1516.01,1254.65 1643.65,1394.83 1678.46,1439.02"/>
    <poly id="149949716" type="unknown" color="51,128,255" fill="0" layer="-1.00" shape="1626.84,87.19 1625.23,111.15 1626.29,170.47 1625.13,253.52 1627.25,327.34 1610.50,383.55 1576.32,419.89 1550.08,446.31 1537.86,457.36 1513.83,474.79 1499.94,488.73 1488.59,517.66 1479.16,563.43"/>
    <poly id="159408371" type="amenity" color="224,224,224" fill="1" layer="2.00" shape="611.21,883.99 596.63,858.59 626.50,841.67 628.80,845.67 642.47,837.94 640.32,834.19 648.04,829.82 646.71,827.53 663.77,817.86 676.53,840.12 660.56,849.16 661.44,850.71 629.05,869.05 631.14,872.69 611.21,883.99"/>
    <poly id="159408371#1" type="building" color="255,230,230" fill="1" layer="2.00" shape="611.21,883.99 596.63,858.59 626.50,841.67 628.80,845.67 642.47,837.94 640.32,834.19 648.04,829.82 646.71,827.53 663.77,817.86 676.53,840.12 660.56,849.16 661.44,850.71 629.05,869.05 631.14,872.69 611.21,883.99"/>
    <poly id="159408374" type="amenity" color="224,224,224" fill="1" layer="2.00" shape="830.29,760.02 850.88,781.20 794.14,832.31 787.87,826.09 793.88,821.41 789.96,817.25 789.96,810.50 795.45,806.60 794.92,803.22 789.43,798.28 830.29,760.02"/>
    <poly id="159408374#1" type="building" color="255,255,255" fill="1" layer="2.00" shape="830.29,760.02 850.88,781.20 794.14,832.31 787.87,826.09 793.88,821.41 789.96,817.25 789.96,810.50 795.45,806.60 794.92,803.22 789.43,798.28 830.29,760.02"/>
    <poly id="159408376" type="amenity" color="224,224,224" fill="1" layer="2.00" shape="911.90,817.26 950.48,786.72 965.78,805.79 927.19,836.33 911.90,817.26"/>
    <poly id="159408376#1" type="building" color="255,230,230" fill="1" layer="2.00" shape="911.90,817.26 950.48,786.72 965.78,805.79 927.19,836.33 911.90,817.26"/>
    <poly id="200450935" type="unknown" color="51,128,255" fill="0" layer="-1.00" shape="1383.88,732.62 1393.84,739.76 1401.62,745.33 1415.43,748.01"/>
    <poly id="200724088" type="unknown" color="51,128,255" fill="0" layer="-1.00" shape="862.66,924.95 938.47,867.14 1020.76,809.05 1097.40,752.96 1177.55,697.58"/>
    <poly id="217963697" type="tourism" color="207,245,201" fill="1" layer="2.00" shape="968.07,1131.93 981.23,1139.05 991.98,1133.12 982.42,1118.87 968.07,1131.93"/>
    <poly id="24679590" type="boundary.administrative" color="128,0,51" fill="0" layer="-12.00" shape="684.06,1233.24 672.67,1176.46"/>
    <poly id="24680728" type="boundary.administrative" color="128,0,51" fill="0" layer="-12.00" shape="641.64,1266.49 612.29,1223.44 607.90,1217.01 578.74,1182.08 541.09,1145.73 517.79,1125.27"/>
    <poly id="24714719" type="unknown" color="51,128,255" fill="0" layer="-1.00" shape="1528.39,96.81 1378.38,213.83 1334.25,252.86 1299.75,307.49 1273.22,368.04 1264.59,386.55 1252.09,402.24 1174.73,459.75"/>
    <poly id="24714722" type="unknown" color="51,128,255" fill="0" layer="-1.00" shape="1514.38,642.52 1510.73,647.71 1438.89,666.24"/>
    <poly id="24714723" type="unknown" color="51,128,255" fill="0" layer="-1.00" shape="1370.97,769.77 1378.63,763.53 1386.24,753.60 1383.88,732.62 1382.61,685.39 1383.24,675.27 1388.74,660.03"/>
    <poly id="24714725" type="unknown" color="51,128,255" fill="0" layer="-1.00" shape="1393.92,690.73 1392.04,673.78 1388.74,660.03 1388.44,641.83 1395.31,619.87 1407.24,609.15 1435.53,583.73"/>
    <poly id="24714726" type="unknown" color="51,128,255" fill="0" layer="-1.00" shape="1388.35,791.04 1432.19,843.40 1484.74,907.31"/>
    <poly id="24714728" type="unknown" color="51,128,255" fill="0" layer="-1.00" shape="1472.39,506.53 1472.38,429.78 1476.30,416.71 1483.35,406.50 1501.42,392.71 1527.88,371.90 1545.72,342.75 1560.99,305.78 1570.75,263.02 1572.90,251.91 1570.00,153.19 1567.98,145.30"/>
    <poly id="24715186" type="unknown" color="51,128,255" fill="0" layer="-1.00" shape="1576.32,419.89 1559.61,431.22 1551.83,432.56 1546.36,430.42 1544.61,427.37 1547.70,408.08"/>
    <poly id="24715187" type="unknown" color="51,128,255" fill="0" layer="-1.00" shape="1512.33,437.47 1530.93,429.96 1536.65,434.10 1538.76,436.89 1540.56,440.95 1540.49,449.10 1537.86,457.36"/>
    <poly id="24715188" type="unknown" color="51,128,255" fill="0" layer="-1.00" shape="1479.16,563.43 1491.28,548.58 1498.82,551.09 1506.53,578.18"/>
    <poly id="24715190" type="unknown" color="51,128,255" fill="0" layer="-1.00" shape="1550.08,446.31 1565.29,485.82 1591.91,576.21 1616.79,669.43"/>
    <poly id="24715193" type="unknown" color="51,128,255" fill="0" layer="-1.00" shape="1565.29,485.82 1623.69,462.45"/>
    <poly id="24715194" type="unknown" color="51,128,255" fill="0" layer="-1.00" shape="1440.32,674.45 1449.64,687.75 1456.06,723.79 1461.27,746.23 1496.70,780.57"/>
    <poly id="24715195" type="unknown" color="51,128,255" fill="0" layer="-1.00" shape="1710.23,639.52 1616.79,669.43 1529.55,696.15"/>
    <poly id="24715196" type="unknown" color="51,128,255" fill="0" layer="-1.00" shape="1565.04,788.89 1731.93,734.01 1822.77,702.99"/>
    <poly id="24715198" type="unknown" color="51,128,255" fill="0" layer="-1.00" shape="1388.56,1106.18 1317.12,1167.90 1248.93,1226.58 1174.92,1284.71"/>
    <poly id="24715200" type="unknown" color="51,128,255" fill="0" layer="-1.00" shape="1622.82,1079.64 1670.26,1056.35"/>
    <poly id="24715204" type="unknown" color="51,128,255" fill="0" layer="-1.00" shape="1401.50,973.97 1458.27,928.64 1484.74,907.31"/>
    <poly id="24715206" type="unknown" color="51,128,255" fill="0" layer="-1.00" shape="1375.23,885.40 1370.18,840.37 1366.99,810.40"/>
    <poly id="24715207" type="unknown" color="51,128,255" fill="0" layer="-1.00" shape="1574.44,1117.20 1544.73,1187.08"/>
    <poly id="24715304" type="unknown" color="51,128,255" fill="0" layer="-1.00" shape="1118.15,626.94 1210.61,565.67"/>
    <poly id="24716600" type="unknown" color="51,128,255" fill="0" layer="-1.00" shape="1513.58,602.23 1591.91,576.21 1689.82,548.28"/>
    <poly id="24716616" type="unknown" color="51,128,255" fill="0" layer="-1.00" shape="1513.58,602.23 1519.28,638.48 1529.55,696.15"/>
    <poly id="24734054" type="tourism" color="79,230,125" fill="1" layer="-10.00" shape="1019.97,814.04 947.98,863.66 996.88,925.66 1071.54,877.22 1019.97,814.04"/>
    <poly id="24734056" type="unknown" color="51,128,255" fill="0" layer="-1.00" shape="980.47,491.45 994.88,507.20 1011.73,525.64 1039.29,548.01 1059.43,563.32 1118.15,626.94 1177.55,697.58 1235.20,773.58 1294.97,847.13 1298.99,852.18"/>
    <poly id="24734057" type="unknown" color="51,128,255" fill="0" layer="-1.00" shape="1294.56,506.63 1351.21,579.31"/>
    <poly id="24734058" type="unknown" color="51,128,255" fill="0" layer="-1.00" shape="1558.28,772.76 1555.25,776.42 1546.75,779.68 1537.33,771.07 1528.07,771.97 1478.50,808.39 1466.79,816.99"/>
    <poly id="24734059" type="unknown" color="51,128,255" fill="0" layer="-1.00" shape="1272.79,965.32 1199.67,1025.17 1123.06,1078.16 1078.87,1108.59 1043.66,1135.01"/>
    <poly id="24734061" type="unknown" color="51,128,255" fill="0" layer="-1.00" shape="1177.55,697.58 1266.13,634.92"/>
    <poly id="24734068" type="unknown" color="51,128,255" fill="0" layer="-1.00" shape="1059.43,563.32 1141.71,486.78"/>
    <poly id="248286158" type="amenity" color="237,199,199" fill="1" layer="2.00" shape="304.35,386.76 416.69,443.72 491.95,368.93 426.82,293.56 304.35,386.76"/>
    <poly id="24918887" type="unknown" color="51,128,255" fill="0" layer="-1.00" shape="740.93,1233.56 816.75,1177.17 894.22,1117.61 899.48,1113.56 903.90,1110.44 975.16,1060.27 979.46,1057.25 984.12,1054.50 1022.77,1031.82 1052.19,1009.17 1057.31,1005.23 1063.60,1000.99 1134.28,953.31 1139.60,949.73"/>
    <poly id="24919583" type="unknown" color="51,128,255" fill="0" layer="-1.00" shape="547.52,655.67 588.92,621.94"/>
    <poly id="24919584" type="boundary.administrative" color="128,0,51" fill="0" layer="-12.00" shape="381.37,1132.86 338.63,1093.20 289.41,1050.56 253.18,1027.25"/>
    <poly id="24925788" type="unknown" color="51,128,255" fill="0" layer="-1.00" shape="495.44,507.64 565.72,440.47"/>
    <poly id="24925791" type="unknown" color="51,128,255" fill="0" layer="-1.00" shape="655.20,402.26 583.74,467.31 508.30,531.13 431.60,596.45"/>
    <poly id="24925843" type="unknown" color="51,128,255" fill="0" layer="-1.00" shape="762.89,350.23 778.68,362.36 793.28,381.21 821.40,402.40 871.55,461.38"/>
    <poly id="24925881" type="unknown" color="51,128,255" fill="0" layer="-1.00" shape="431.60,596.45 367.69,649.31 313.50,689.95"/>
    <poly id="24925882" type="unknown" color="51,128,255" fill="0" layer="-1.00" shape="367.69,649.31 348.89,602.08"/>
    <poly id="253234077" type="leisure" color="207,245,201" fill="1" layer="0.00" shape="1534.63,851.50 1573.28,820.94 1535.23,773.11 1495.57,803.27 1534.63,851.50"/>
    <poly id="253234077#1" type="sport" color="204,102,0" fill="1" layer="2.00" shape="1534.63,851.50 1573.28,820.94 1535.23,773.11 1495.57,803.27 1534.63,851.50"/>
    <poly id="253234079" type="building" color="255,230,230" fill="1" layer="2.00" shape="1095.30,1034.33 1118.91,1016.22 1135.06,1033.91 1111.25,1052.85 1095.30,1034.33"/>
    <poly id="253234080" type="building" color="224,224,224" fill="1" layer="2.00" shape="945.54,853.53 1010.16,811.00 994.05,789.75 932.93,834.06 945.54,853.53"/>
    <poly id="253234081" type="building" color="255,230,230" fill="1" layer="2.00" shape="1010.57,1045.02 1026.75,1033.85 1042.94,1057.96 1065.12,1042.77 1090.88,1072.53 1073.65,1084.74 1054.03,1099.78 1028.71,1068.98 1010.57,1045.02"/>
    <poly id="253234084" type="unknown" color="51,128,255" fill="0" layer="-1.00" shape="983.21,1022.46 985.79,1025.96"/>
    <poly id="253234085" type="unknown" color="51,128,255" fill="0" layer="-1.00" shape="987.41,1015.80 983.43,1018.54"/>
    <poly id="253234086" type="unknown" color="51,128,255" fill="0" layer="-1.00" shape="979.28,1019.00 975.36,1014.06"/>
    <poly id="253234088" type="unknown" color="51,128,255" fill="0" layer="-1.00" shape="975.79,1025.67 980.03,1022.58"/>
    <poly id="253234095" type="unknown" color="51,128,255" fill="1" layer="-1.00" shape="983.21,1022.46 980.03,1022.58 978.88,1020.44 979.28,1019.00 981.14,1017.78 983.43,1018.54 984.12,1021.07 983.21,1022.46"/>
    <poly id="253234100" type="tourism" color="207,245,201" fill="1" layer="-10.00" shape="953.38,997.80 962.70,1011.16 974.33,1000.45 964.60,988.51 953.38,997.80"/>
    <poly id="253234102" type="tourism" color="207,245,201" fill="1" layer="-10.00" shape="1042.48,1050.94 1063.35,1036.83 1055.30,1026.52 1034.12,1040.00 1042.48,1050.94"/>
    <poly id="253234103" type="tourism" color="207,245,201" fill="1" layer="-10.00" shape="970.49,1018.08 975.79,1025.67 979.82,1031.45 985.79,1025.96 991.44,1020.75 987.41,1015.80 981.71,1008.80 975.36,1014.06 970.49,1018.08"/>
    <poly id="260993269" type="shop" color="237,199,255" fill="1" layer="2.00" shape="946.31,691.74 958.27,705.97 946.91,715.48 934.37,701.23 946.31,691.74"/>
    <poly id="292748733" type="unknown" color="51,128,255" fill="0" layer="-1.00" shape="1556.95,616.24 1550.37,623.89 1539.02,631.23 1527.90,635.54 1519.28,638.48"/>
    <poly id="296352791" type="unknown" color="51,128,255" fill="0" layer="-1.00" shape="253.79,587.18 326.75,555.03 369.94,508.89 417.19,458.01 502.21,368.68"/>
    <poly id="296352792" type="unknown" color="51,128,255" fill="0" layer="-1.00" shape="1380.45,1239.52 1452.63,1180.21 1543.24,1104.60 1602.56,1053.86 1673.12,994.28"/>
    <poly id="296532164" type="unknown" color="51,128,255" fill="0" layer="-1.00" shape="495.44,507.64 465.47,526.22 369.94,508.89 341.49,504.44 292.05,505.77 227.82,493.32 167.89,466.57 128.44,457.55"/>
    <poly id="296532165" type="unknown" color="51,128,255" fill="0" layer="-1.00" shape="495.44,507.64 481.91,493.88 417.19,458.01 284.17,385.40 212.73,343.23 102.94,258.70 53.71,226.99 -0.00,194.97"/>
    <poly id="31018343" type="unknown" color="51,128,255" fill="0" layer="-1.00" shape="871.55,461.38 781.95,527.73 695.76,597.40"/>
    <poly id="31018344" type="unknown" color="51,128,255" fill="0" layer="-1.00" shape="939.43,404.11 914.84,426.76 871.55,461.38"/>
    <poly id="31018346" type="unknown" color="51,128,255" fill="0" layer="-1.00" shape="925.78,537.97 956.17,512.83 980.47,491.45"/>
    <poly id="31018349" type="unknown" color="51,128,255" fill="0" layer="-1.00" shape="925.78,537.97 871.55,461.38"/>
    <poly id="31018409" type="unknown" color="51,128,255" fill="0" layer="-1.00" shape="1484.74,907.31 1525.63,875.80"/>
    <poly id="31018639" type="unknown" color="51,128,255" fill="0" layer="-1.00" shape="1141.71,486.78 1210.61,565.67 1266.13,634.92 1329.61,717.12 1370.97,769.77"/>
    <poly id="31052939" type="unknown" color="51,128,255" fill="0" layer="-1.00" shape="1600.10,62.66 1611.82,101.39 1619.60,145.31 1617.80,225.45 1617.81,264.93 1616.35,318.30 1606.47,349.50 1591.55,378.54 1574.83,402.87 1553.62,424.25 1546.36,430.42 1538.76,436.89 1535.10,439.99 1523.14,451.30 1508.80,462.27 1501.34,468.80 1493.59,482.71 1483.44,517.73 1475.06,553.39 1461.22,574.68 1440.53,599.02 1432.99,613.76 1430.05,619.52 1426.50,653.01 1425.48,668.81 1422.98,713.71 1421.78,724.56 1419.03,730.14 1409.46,739.16 1400.95,740.94 1393.84,739.76"/>
    <poly id="31052946" type="unknown" color="51,128,255" fill="0" layer="-1.00" shape="1438.89,666.24 1440.32,674.45 1447.66,716.59"/>
    <poly id="311344825" type="power" color="26,26,77" fill="1" layer="5.00" shape="1128.30,530.29 1124.90,527.71 1118.90,519.99 1118.36,515.52 1139.21,499.12 1144.39,499.40 1151.90,509.69 1150.40,516.19 1128.30,530.29"/>
    <poly id="311344828" type="unknown" color="51,128,255" fill="0" layer="-1.00" shape="1163.05,359.02 1083.91,411.60"/>
    <poly id="311344831" type="unknown" color="51,128,255" fill="0" layer="-1.00" shape="1141.71,486.78 1174.73,459.75"/>
    <poly id="311344833" type="unknown" color="51,128,255" fill="0" layer="-1.00" shape="1174.73,459.75 1234.66,400.79 1251.80,377.31 1262.84,332.79 1298.47,275.25 1320.00,245.81 1368.53,203.33 1486.25,112.39 1512.23,88.18"/>
    <poly id="31134646" type="amenity" color="160,160,160" fill="1" layer="2.00" shape="818.84,814.20 854.46,782.33 929.49,865.06 893.88,896.92 818.84,814.20"/>
    <poly id="31134646#1" type="building" color="255,230,230" fill="1" layer="2.00" shape="818.84,814.20 854.46,782.33 929.49,865.06 893.88,896.92 818.84,814.20"/>
    <poly id="31134772" type="building" color="255,230,230" fill="1" layer="2.00" shape="1343.53,1178.57 1364.57,1161.47 1381.10,1179.79 1360.21,1196.65 1343.53,1178.57"/>
    <poly id="31134772#1" type="tourism" color="207,245,201" fill="1" layer="2.00" shape="1343.53,1178.57 1364.57,1161.47 1381.10,1179.79 1360.21,1196.65 1343.53,1178.57"/>
    <poly id="31141956" type="amenity" color="160,160,160" fill="1" layer="2.00" shape="1033.31,806.46 1077.28,775.11 1127.49,836.96 1080.66,865.46 1033.31,806.46"/>
    <poly id="31141956#1" type="building" color="255,230,230" fill="1" layer="2.00" shape="1033.31,806.46 1077.28,775.11 1127.49,836.96 1080.66,865.46 1033.31,806.46"/>
    <poly id="31141991" type="boundary.administrative" color="128,0,51" fill="0" layer="-12.00" shape="871.88,1381.03 923.81,1340.97 948.62,1321.81 951.73,1319.42 1030.50,1269.39 1108.60,1209.44 1184.31,1149.40"/>
    <poly id="31149837" type="building" color="255,230,230" fill="1" layer="2.00" shape="865.68,671.58 884.84,655.13 901.00,673.69 881.85,690.14 865.68,671.58"/>
    <poly id="31149837#1" type="tourism" color="207,245,201" fill="1" layer="2.00" shape="865.68,671.58 884.84,655.13 901.00,673.69 881.85,690.14 865.68,671.58"/>
    <poly id="31150008" type="amenity" color="237,199,199" fill="1" layer="2.00" shape="1343.16,959.51 1360.77,946.00 1391.33,977.54 1369.39,994.81 1348.73,971.31 1343.16,959.51"/>
    <poly id="31150008#1" type="building" color="255,230,230" fill="1" layer="2.00" shape="1343.16,959.51 1360.77,946.00 1391.33,977.54 1369.39,994.81 1348.73,971.31 1343.16,959.51"/>
    <poly id="31150031" type="building" color="160,160,160" fill="1" layer="2.00" shape="890.67,944.68 903.35,934.93 916.50,924.23 946.93,962.38 920.16,980.43 890.67,944.68"/>
    <poly id="31150044" type="amenity" color="237,199,199" fill="1" layer="2.00" shape="1023.43,1157.97 1056.90,1199.76 1019.63,1231.09 981.37,1192.17 1023.43,1157.97"/>
    <poly id="31152468" type="building" color="255,230,230" fill="1" layer="2.00" shape="794.77,752.66 814.77,733.76 823.88,743.35 824.32,748.24 823.08,752.60 808.24,766.73 794.77,752.66"/>
    <poly id="31152468#1" type="tourism" color="207,245,201" fill="1" layer="2.00" shape="794.77,752.66 814.77,733.76 823.88,743.35 824.32,748.24 823.08,752.60 808.24,766.73 794.77,752.66"/>
    <poly id="31152539" type="building" color="255,230,230" fill="1" layer="2.00" shape="784.00,680.15 806.63,659.91 837.89,694.40 815.26,714.64 784.00,680.15"/>
    <poly id="31152539#1" type="tourism" color="207,245,201" fill="1" layer="2.00" shape="784.00,680.15 806.63,659.91 837.89,694.40 815.26,714.64 784.00,680.15"/>
    <poly id="31152557" type="building" color="255,230,230" fill="1" layer="2.00" shape="1154.98,586.77 1146.57,574.43 1163.78,562.83 1172.20,575.17 1154.98,586.77"/>
    <poly id="31152557#1" type="tourism" color="207,245,201" fill="1" layer="2.00" shape="1154.98,586.77 1146.57,574.43 1163.78,562.83 1172.20,575.17 1154.98,586.77"/>
    <poly id="31152566" type="building" color="255,230,230" fill="1" layer="2.00" shape="1352.71,464.38 1364.18,452.98 1384.26,476.72 1371.83,487.17 1352.71,464.38"/>
    <poly id="31152566#1" type="tourism" color="207,245,201" fill="1" layer="2.00" shape="1352.71,464.38 1364.18,452.98 1384.26,476.72 1371.83,487.17 1352.71,464.38"/>
    <poly id="31152638" type="unknown" color="51,128,255" fill="0" layer="-1.00" shape="1382.61,685.39 1329.61,717.12 1235.20,773.58 1157.73,826.89"/>
    <poly id="31153096" type="unknown" color="51,128,255" fill="0" layer="-1.00" shape="524.49,553.23 567.26,526.55 609.89,502.40"/>
    <poly id="31153413" type="building" color="255,230,230" fill="1" layer="2.00" shape="1082.81,662.53 1102.88,645.43 1145.91,701.45 1122.02,718.55 1082.81,662.53"/>
    <poly id="31153413#1" type="tourism" color="207,245,201" fill="1" layer="2.00" shape="1082.81,662.53 1102.88,645.43 1145.91,701.45 1122.02,718.55 1082.81,662.53"/>
    <poly id="31153878" type="landuse" color="194,194,130" fill="1" layer="-4.00" shape="769.00,1149.61 795.78,1179.99 742.24,1217.03 725.03,1176.20 734.58,1164.80 743.19,1172.40 769.00,1149.61"/>
    <poly id="31153884" type="landuse" color="194,194,130" fill="1" layer="-4.00" shape="595.75,1386.95 565.16,1348.97 708.53,1226.45 726.70,1240.70 710.45,1256.84 718.10,1265.38 706.64,1301.48 595.75,1386.95"/>
    <poly id="31154023" type="unknown" color="51,128,255" fill="0" layer="-1.00" shape="327.48,711.26 220.35,803.58 104.59,892.76 90.26,897.99"/>
    <poly id="31154057" type="unknown" color="51,128,255" fill="0" layer="-1.00" shape="1157.73,826.89 1076.27,880.78 994.04,934.27 917.42,989.09"/>
    <poly id="31154215" type="unknown" color="79,230,125" fill="1" layer="-1.00" shape="974.22,485.77 930.09,425.51 890.57,461.44 889.37,464.16 889.46,468.80 891.20,472.98 919.92,509.25 924.53,515.28 931.54,516.85 939.13,513.67 943.15,505.75 958.09,491.23 974.22,485.77"/>
    <poly id="31154250" type="unknown" color="51,128,255" fill="0" layer="-1.00" shape="431.60,596.45 448.04,613.99 490.16,585.78"/>
    <poly id="31154331" type="tourism" color="207,245,201" fill="1" layer="-10.00" shape="1401.50,973.97 1355.43,1012.37 1406.98,1040.26 1429.49,998.61 1401.50,973.97"/>
    <poly id="31265503" type="unknown" color="51,128,255" fill="0" layer="-1.00" shape="1435.53,583.73 1454.62,562.14 1464.26,536.38 1472.39,506.53 1485.52,464.53 1501.83,446.77 1512.33,437.47 1533.69,419.65 1547.70,408.08 1570.61,375.08 1599.62,316.58 1603.38,276.67 1605.89,182.47 1605.34,130.07 1600.08,115.29 1591.54,102.76 1583.08,95.21"/>
    <poly id="31265887" type="unknown" color="51,128,255" fill="0" layer="-1.00" shape="1421.10,609.61 1463.12,563.48 1469.70,548.89 1486.11,488.40 1490.30,475.59 1500.46,461.64 1511.96,451.04 1532.94,437.24 1536.65,434.10 1544.61,427.37 1551.46,421.59 1570.35,401.09 1586.18,377.05 1602.31,342.63 1610.06,315.32 1611.85,263.10 1612.65,201.26 1613.61,146.23 1609.14,120.38 1596.79,63.66 1577.94,0.00"/>
    <poly id="31266377" type="unknown" color="51,128,255" fill="0" layer="-1.00" shape="1511.04,858.19 1409.61,732.33 1395.64,715.85 1393.92,690.73"/>
    <poly id="31266418" type="unknown" color="51,128,255" fill="0" layer="-1.00" shape="1478.50,808.39 1442.95,761.20 1429.96,744.33 1419.03,730.14 1415.29,725.27 1406.47,714.09 1409.98,662.04 1413.26,620.37 1421.10,609.61"/>
    <poly id="31266624" type="unknown" color="51,128,255" fill="0" layer="-1.00" shape="1525.63,875.80 1511.04,858.19"/>
    <poly id="31266627" type="unknown" color="51,128,255" fill="0" layer="-1.00" shape="1546.75,901.10 1525.63,875.80"/>
    <poly id="31266628" type="unknown" color="51,128,255" fill="0" layer="-1.00" shape="1608.76,979.93 1580.47,944.10 1546.75,901.10"/>
    <poly id="31266768" type="unknown" color="51,128,255" fill="0" layer="-1.00" shape="1479.16,563.43 1464.80,585.60 1445.36,610.47 1442.23,624.20 1440.73,630.82 1439.24,652.18 1438.89,666.24"/>
    <poly id="31266815" type="unknown" color="51,128,255" fill="0" layer="-1.00" shape="1527.01,761.69 1542.71,757.13 1552.77,761.13"/>
    <poly id="31267018" type="unknown" color="51,128,255" fill="0" layer="-1.00" shape="1529.55,696.15 1506.10,701.65 1461.27,746.23"/>
    <poly id="31281334" type="amenity" color="237,199,199" fill="1" layer="2.00" shape="876.23,1148.06 894.40,1165.15 915.43,1147.11 900.13,1130.01 876.23,1148.06"/>
    <poly id="31281334#1" type="building" color="255,230,230" fill="1" layer="2.00" shape="876.23,1148.06 894.40,1165.15 915.43,1147.11 900.13,1130.01 876.23,1148.06"/>
    <poly id="31281334#2" type="tourism" color="207,245,201" fill="1" layer="2.00" shape="876.23,1148.06 894.40,1165.15 915.43,1147.11 900.13,1130.01 876.23,1148.06"/>
    <poly id="31281338" type="unknown" color="51,128,255" fill="0" layer="-1.00" shape="429.25,798.71 479.46,855.38 485.39,869.38"/>
    <poly id="31281345" type="unknown" color="51,128,255" fill="0" layer="-1.00" shape="917.42,989.09 906.59,992.89 873.30,1014.95 862.89,1021.84 832.43,1045.18 750.66,1107.19 698.12,1154.82"/>
    <poly id="31281502" type="tourism" color="207,245,201" fill="1" layer="2.00" shape="643.07,526.14 671.38,502.81 722.45,563.94 694.16,587.26 643.07,526.14"/>
    <poly id="31282543" type="unknown" color="51,128,255" fill="0" layer="-1.00" shape="524.49,553.23 508.30,531.13"/>
    <poly id="31283357" type="amenity" color="237,199,199" fill="1" layer="2.00" shape="1502.96,903.99 1523.99,885.94 1567.97,938.15 1546.94,956.20 1502.96,903.99"/>
    <poly id="31283357#1" type="building" color="255,230,230" fill="1" layer="2.00" shape="1502.96,903.99 1523.99,885.94 1567.97,938.15 1546.94,956.20 1502.96,903.99"/>
    <poly id="31297227" type="landuse" color="194,194,130" fill="1" layer="-4.00" shape="1492.30,409.13 1514.50,427.40 1496.33,444.18 1483.73,460.96 1481.10,461.78 1479.44,460.51 1478.84,455.23 1480.35,441.46 1482.92,429.85 1486.55,418.33 1492.30,409.13"/>
    <poly id="31297278" type="landuse" color="194,194,130" fill="1" layer="-4.00" shape="1375.17,814.92 1391.42,804.48 1421.06,840.56 1393.34,859.55 1379.01,838.67 1375.17,814.92"/>
    <poly id="31297309" type="landuse" color="194,194,130" fill="1" layer="-4.00" shape="925.04,1154.51 941.29,1173.50 897.33,1203.89 886.80,1186.81 925.04,1154.51"/>
    <poly id="31297341" type="unknown" color="51,128,255" fill="0" layer="-1.00" shape="410.32,1217.56 457.34,1176.03"/>
    <poly id="31297458" type="landuse" color="194,194,130" fill="1" layer="-4.00" shape="782.28,1000.74 806.69,1027.08 777.30,1051.66 754.67,1025.06 782.28,1000.74"/>
    <poly id="316739599" type="unknown" color="51,128,255" fill="0" layer="-1.00" shape="1613.61,916.84 1588.02,938.08 1580.47,944.10 1541.64,975.42 1439.47,1061.09"/>
    <poly id="31910357" type="unknown" color="51,128,255" fill="0" layer="-1.00" shape="517.79,1125.27 592.47,1068.54 629.81,1039.41 741.95,946.04"/>
    <poly id="31910358" type="boundary.administrative" color="128,0,51" fill="0" layer="-12.00" shape="457.34,1176.03 517.79,1125.27"/>
    <poly id="31910359" type="unknown" color="51,128,255" fill="0" layer="-1.00" shape="517.79,1125.27 467.73,1065.62 432.18,1024.82 367.69,951.58 311.70,887.96"/>
    <poly id="31910394" type="unknown" color="51,128,255" fill="0" layer="-1.00" shape="672.67,1176.46 612.29,1223.44 502.14,1312.04"/>
    <poly id="31910395" type="boundary.administrative" color="128,0,51" fill="0" layer="-12.00" shape="698.12,1154.82 672.67,1176.46"/>
    <poly id="31910404" type="boundary.administrative" color="128,0,51" fill="0" layer="-12.00" shape="732.32,1235.25 698.12,1154.82"/>
    <poly id="31910494" type="unknown" color="51,128,255" fill="0" layer="-1.00" shape="1329.88,1034.85 1355.43,1012.37"/>