<?xml version="1.0"?>
<!-- generated on 2016-05-31 22:28:58.677686 by $Id: randomTrips.py 19495 2015-12-02 12:36:28Z behrisch $
  options: -n centro.net.xml -r centro.rou.xml -e 50 -l
-->
<trips>
    <trip id="0" depart="0.00" from="24925791#1" to="24714722" />
    <trip id="1" depart="1.00" from="420901227#0" to="31141991#2" />
    <trip id="2" depart="2.00" from="-296532165#1" to="354423303#0" />
    <trip id="3" depart="3.00" from="409656667#0" to="-420912098#0" />
    <trip id="4" depart="4.00" from="86533724#0" to="420912098#1" />
    <trip id="5" depart="5.00" from="353552119#4" to="-24919583" />
    <trip id="6" depart="6.00" from="421482710#1" to="36739013" />
    <trip id="7" depart="7.00" from="149946838#2" to="-24715190#2" />
    <trip id="8" depart="8.00" from="31018343#0" to="104750573#1" />
    <trip id="9" depart="9.00" from="-200450935#1" to="-24715190#2" />
    <trip id="10" depart="10.00" from="353556189#1" to="24734056#4" />
    <trip id="11" depart="11.00" from="-24715196" to="-31018349" />
    <trip id="12" depart="12.00" from="31154250" to="-24919583" />
    <trip id="13" depart="13.00" from="24734058#0" to="24714728#1" />
    <trip id="14" depart="14.00" from="-24714728#1" to="24715198#1" />
    <trip id="15" depart="15.00" from="-107938404" to="296532165#0" />
    <trip id="16" depart="16.00" from="338912988#2" to="95606296" />
    <trip id="17" depart="17.00" from="24734056#5" to="409656672#0" />
    <trip id="18" depart="18.00" from="-24925843#1" to="112033751#0" />
    <trip id="19" depart="19.00" from="31018343#0" to="31018349" />
    <trip id="20" depart="20.00" from="420917638" to="353552121#0" />
    <trip id="21" depart="21.00" from="31910357#2" to="-409656666#0" />
    <trip id="22" depart="22.00" from="354423304#3" to="112033768#0" />
    <trip id="23" depart="23.00" from="351942414#1" to="24715194#1" />
    <trip id="24" depart="24.00" from="-24714728#1" to="351942429#0" />
    <trip id="25" depart="25.00" from="-31018349" to="24734059#0" />
    <trip id="26" depart="26.00" from="24716616#1" to="71155373#2" />
    <trip id="27" depart="27.00" from="31153096" to="409656668#2" />
    <trip id="28" depart="28.00" from="-409656666#6" to="353552119#4" />
    <trip id="29" depart="29.00" from="31910357#1" to="24714728#1" />
    <trip id="30" depart="30.00" from="24714719" to="353552119#2" />
    <trip id="31" depart="31.00" from="-409656666#8" to="353552123#3" />
    <trip id="32" depart="32.00" from="31018639#1" to="31267018" />
    <trip id="33" depart="33.00" from="31267018" to="351942414#3" />
    <trip id="34" depart="34.00" from="354423303#0" to="311344833" />
    <trip id="35" depart="35.00" from="24734059#0" to="353552123#0" />
    <trip id="36" depart="36.00" from="351942429#2" to="421482710#1" />
    <trip id="37" depart="37.00" from="24734059#2" to="-31153096" />
    <trip id="38" depart="38.00" from="31266418#2" to="31265503#4" />
    <trip id="39" depart="39.00" from="24918887#2" to="409656667#1" />
    <trip id="40" depart="40.00" from="-86533724#0" to="420910319" />
    <trip id="41" depart="41.00" from="353552123#0" to="149946837" />
    <trip id="42" depart="42.00" from="112033768#0" to="420901218" />
    <trip id="43" depart="43.00" from="338912988#2" to="31265887#0" />
    <trip id="44" depart="44.00" from="31018343#1" to="31266768#0" />
    <trip id="45" depart="45.00" from="353552119#2" to="421514866#1" />
    <trip id="46" depart="46.00" from="24715206" to="420901180#0" />
    <trip id="47" depart="47.00" from="24715194#1" to="296532165#1" />
    <trip id="48" depart="48.00" from="420912098#2" to="421514866#0" />
    <trip id="49" depart="49.00" from="-24715190#1" to="420901222" />
</trips>
